tests/data/power_flow/automatic-tap-regulator/auto-tap-changer-small-u-band-max-iter-any/input.json
{
  "version": "1.0",
  "type": "input",
  "is_batch": false,
  "attributes": {},
  "data": {
    "node": [
      {
        "id": 1,
        "u_rated": 10000
      },
      {
        "id": 2,
        "u_rated": 400
      }
    ],
    "source": [
      {
        "id": 3,
        "node": 1,
        "status": 1,
        "u_ref": 1
      }
    ],
    "sym_load": [
      {
        "id": 4,
        "node": 2,
        "status": 1,
        "type": 0,
        "p_specified": 5000,
        "q_specified": 1015
      }
    ],
    "transformer": [
      {
        "id": 5,
        "from_node": 1,
        "to_node": 2,
        "from_status": 1,
        "to_status": 1,
        "u1": 10000,
        "u2": 400,
        "sn": 100000,
        "uk": 0.04,
        "pk": 1000,
        "i0": 0.01,
        "p0": 100,
        "winding_from": 2,
        "winding_to": 2,
        "clock": 0,
        "tap_side": 0,
        "tap_pos": 2,
        "tap_min": 1,
        "tap_max": 5,
        "tap_nom": 3,
        "tap_size": 250
      }
    ],
    "transformer_tap_regulator": [
      {
        "id": 6,
        "regulated_object": 5,
        "status": 1,
        "control_side": 1,
        "u_set": 400,
        "u_band": 1e-05
      }
    ]
  }
}
